<routes>
            <vType accel="1.0" decel="4.5" id="standard_car" length="5.0" minGap="2.5" maxSpeed="40" sigma="0.5" />

            <route id="D_F" edges="D2I D2 I2F"/>#F=FSSM/AF=Allal lfasi/D=bab dkala/G=gueliz
            <route id="D_AF_2" edges="D2I D2 2AF I2AF"/>
            <route id="D_AF" edges="D2I D2AF_2 I2AF"/>
            <route id="D_G" edges="D2I D2 I2G"/>
            <route id="F_D" edges="F2I I2D"/>
            <route id="F_AF" edges="F2I 2AF I2AF"/>
            <route id="F_G" edges="F2I I2G"/>
            <route id="AF_F" edges="AF2I I2F"/>
            <route id="AF_G" edges="AF2I I2G"/>
            <route id="AF_D" edges="AF2I I2D"/>
            <route id="G_D" edges="G2I I2D"/>
            <route id="G_AF" edges="G2I 2AF I2AF"/>
            <route id="G_F" edges="G2I I2F"/>
    <vehicle id="AF_G_0" type="standard_car" route="AF_G" depart="102.0" departLane="random" departSpeed="30" />
    <vehicle id="F_D_1" type="standard_car" route="F_D" depart="123.0" departLane="random" departSpeed="30" />
    <vehicle id="G_AF_2" type="standard_car" route="G_AF" depart="127.0" departLane="random" departSpeed="30" />
    <vehicle id="AF_G_3" type="standard_car" route="AF_G" depart="128.0" departLane="random" departSpeed="30" />
    <vehicle id="D_F_4" type="standard_car" route="D_F" depart="130.0" departLane="random" departSpeed="30" />
    <vehicle id="D_F_5" type="standard_car" route="D_F" depart="134.0" departLane="random" departSpeed="30" />
    <vehicle id="G_AF_6" type="standard_car" route="G_AF" depart="137.0" departLane="random" departSpeed="30" />
    <vehicle id="F_D_7" type="standard_car" route="F_D" depart="144.0" departLane="random" departSpeed="30" />
    <vehicle id="D_AF_8" type="standard_car" route="D_AF" depart="150.0" departLane="random" departSpeed="30" />
    <vehicle id="AF_G_9" type="standard_car" route="AF_G" depart="157.0" departLane="random" departSpeed="30" />
    <vehicle id="AF_G_10" type="standard_car" route="AF_G" depart="173.0" departLane="random" departSpeed="30" />
    <vehicle id="G_AF_11" type="standard_car" route="G_AF" depart="174.0" departLane="random" departSpeed="30" />
    <vehicle id="G_AF_12" type="standard_car" route="G_AF" depart="178.0" departLane="random" departSpeed="30" />
    <vehicle id="G_AF_13" type="standard_car" route="G_AF" depart="188.0" departLane="random" departSpeed="30" />
    <vehicle id="D_G_14" type="standard_car" route="D_G" depart="189.0" departLane="random" departSpeed="30" />
    <vehicle id="AF_D_15" type="standard_car" route="AF_D" depart="190.0" departLane="random" departSpeed="30" />
    <vehicle id="D_F_16" type="standard_car" route="D_F" depart="192.0" departLane="random" departSpeed="30" />
    <vehicle id="D_F_17" type="standard_car" route="D_F" depart="195.0" departLane="random" departSpeed="30" />
    <vehicle id="AF_G_18" type="standard_car" route="AF_G" depart="199.0" departLane="random" departSpeed="30" />
    <vehicle id="D_F_19" type="standard_car" route="D_F" depart="199.0" departLane="random" departSpeed="30" />
    <vehicle id="AF_G_20" type="standard_car" route="AF_G" depart="199.0" departLane="random" departSpeed="30" />
    <vehicle id="D_F_21" type="standard_car" route="D_F" depart="206.0" departLane="random" departSpeed="30" />
    <vehicle id="D_F_22" type="standard_car" route="D_F" depart="207.0" departLane="random" departSpeed="30" />
    <vehicle id="D_F_23" type="standard_car" route="D_F" depart="217.0" departLane="random" departSpeed="30" />
    <vehicle id="G_AF_24" type="standard_car" route="G_AF" depart="218.0" departLane="random" departSpeed="30" />
    <vehicle id="D_F_25" type="standard_car" route="D_F" depart="225.0" departLane="random" departSpeed="30" />
    <vehicle id="AF_F_26" type="standard_car" route="AF_F" depart="233.0" departLane="random" departSpeed="30" />
    <vehicle id="G_AF_27" type="standard_car" route="G_AF" depart="242.0" departLane="random" departSpeed="30" />
    <vehicle id="F_D_28" type="standard_car" route="F_D" depart="243.0" departLane="random" departSpeed="30" />
    <vehicle id="AF_G_29" type="standard_car" route="AF_G" depart="244.0" departLane="random" departSpeed="30" />
    <vehicle id="F_D_30" type="standard_car" route="F_D" depart="244.0" departLane="random" departSpeed="30" />
    <vehicle id="F_D_31" type="standard_car" route="F_D" depart="245.0" departLane="random" departSpeed="30" />
    <vehicle id="F_D_32" type="standard_car" route="F_D" depart="251.0" departLane="random" departSpeed="30" />
    <vehicle id="D_G_33" type="standard_car" route="D_G" depart="254.0" departLane="random" departSpeed="30" />
    <vehicle id="F_D_34" type="standard_car" route="F_D" depart="256.0" departLane="random" departSpeed="30" />
    <vehicle id="D_F_35" type="standard_car" route="D_F" depart="260.0" departLane="random" departSpeed="30" />
    <vehicle id="F_D_36" type="standard_car" route="F_D" depart="262.0" departLane="random" departSpeed="30" />
    <vehicle id="F_AF_37" type="standard_car" route="F_AF" depart="264.0" departLane="random" departSpeed="30" />
    <vehicle id="F_D_38" type="standard_car" route="F_D" depart="269.0" departLane="random" departSpeed="30" />
    <vehicle id="AF_G_39" type="standard_car" route="AF_G" depart="271.0" departLane="random" departSpeed="30" />
    <vehicle id="G_AF_40" type="standard_car" route="G_AF" depart="276.0" departLane="random" departSpeed="30" />
    <vehicle id="AF_G_41" type="standard_car" route="AF_G" depart="278.0" departLane="random" departSpeed="30" />
    <vehicle id="AF_G_42" type="standard_car" route="AF_G" depart="282.0" departLane="random" departSpeed="30" />
    <vehicle id="G_AF_43" type="standard_car" route="G_AF" depart="282.0" departLane="random" departSpeed="30" />
    <vehicle id="G_AF_44" type="standard_car" route="G_AF" depart="283.0" departLane="random" departSpeed="30" />
    <vehicle id="G_AF_45" type="standard_car" route="G_AF" depart="284.0" departLane="random" departSpeed="30" />
    <vehicle id="G_F_46" type="standard_car" route="G_F" depart="288.0" departLane="random" departSpeed="30" />
    <vehicle id="G_AF_47" type="standard_car" route="G_AF" depart="289.0" departLane="random" departSpeed="30" />
    <vehicle id="G_F_48" type="standard_car" route="G_F" depart="289.0" departLane="random" departSpeed="30" />
    <vehicle id="F_D_49" type="standard_car" route="F_D" depart="290.0" departLane="random" departSpeed="30" />
    <vehicle id="D_F_50" type="standard_car" route="D_F" depart="291.0" departLane="random" departSpeed="30" />
    <vehicle id="G_AF_51" type="standard_car" route="G_AF" depart="293.0" departLane="random" departSpeed="30" />
    <vehicle id="AF_F_52" type="standard_car" route="AF_F" depart="294.0" departLane="random" departSpeed="30" />
    <vehicle id="G_AF_53" type="standard_car" route="G_AF" depart="295.0" departLane="random" departSpeed="30" />
    <vehicle id="G_AF_54" type="standard_car" route="G_AF" depart="295.0" departLane="random" departSpeed="30" />
    <vehicle id="F_D_55" type="standard_car" route="F_D" depart="298.0" departLane="random" departSpeed="30" />
    <vehicle id="F_D_56" type="standard_car" route="F_D" depart="308.0" departLane="random" departSpeed="30" />
    <vehicle id="AF_G_57" type="standard_car" route="AF_G" depart="310.0" departLane="random" departSpeed="30" />
    <vehicle id="D_G_58" type="standard_car" route="D_G" depart="314.0" departLane="random" departSpeed="30" />
    <vehicle id="D_F_59" type="standard_car" route="D_F" depart="316.0" departLane="random" departSpeed="30" />
    <vehicle id="AF_D_60" type="standard_car" route="AF_D" depart="317.0" departLane="random" departSpeed="30" />
    <vehicle id="G_AF_61" type="standard_car" route="G_AF" depart="318.0" departLane="random" departSpeed="30" />
    <vehicle id="G_AF_62" type="standard_car" route="G_AF" depart="320.0" departLane="random" departSpeed="30" />
    <vehicle id="G_D_63" type="standard_car" route="G_D" depart="320.0" departLane="random" departSpeed="30" />
    <vehicle id="AF_G_64" type="standard_car" route="AF_G" depart="322.0" departLane="random" departSpeed="30" />
    <vehicle id="AF_G_65" type="standard_car" route="AF_G" depart="322.0" departLane="random" departSpeed="30" />
    <vehicle id="AF_D_66" type="standard_car" route="AF_D" depart="327.0" departLane="random" departSpeed="30" />
    <vehicle id="G_AF_67" type="standard_car" route="G_AF" depart="331.0" departLane="random" departSpeed="30" />
    <vehicle id="G_AF_68" type="standard_car" route="G_AF" depart="332.0" departLane="random" departSpeed="30" />
    <vehicle id="G_AF_69" type="standard_car" route="G_AF" depart="335.0" departLane="random" departSpeed="30" />
    <vehicle id="F_AF_70" type="standard_car" route="F_AF" depart="337.0" departLane="random" departSpeed="30" />
    <vehicle id="F_AF_71" type="standard_car" route="F_AF" depart="341.0" departLane="random" departSpeed="30" />
    <vehicle id="D_AF_72" type="standard_car" route="D_AF" depart="344.0" departLane="random" departSpeed="30" />
    <vehicle id="G_AF_73" type="standard_car" route="G_AF" depart="345.0" departLane="random" departSpeed="30" />
    <vehicle id="F_G_74" type="standard_car" route="F_G" depart="347.0" departLane="random" departSpeed="30" />
    <vehicle id="G_D_75" type="standard_car" route="G_D" depart="348.0" departLane="random" departSpeed="30" />
    <vehicle id="F_D_76" type="standard_car" route="F_D" depart="348.0" departLane="random" departSpeed="30" />
    <vehicle id="F_AF_77" type="standard_car" route="F_AF" depart="349.0" departLane="random" departSpeed="30" />
    <vehicle id="F_G_78" type="standard_car" route="F_G" depart="350.0" departLane="random" departSpeed="30" />
    <vehicle id="AF_G_79" type="standard_car" route="AF_G" depart="351.0" departLane="random" departSpeed="30" />
    <vehicle id="AF_F_80" type="standard_car" route="AF_F" depart="356.0" departLane="random" departSpeed="30" />
    <vehicle id="D_F_81" type="standard_car" route="D_F" depart="360.0" departLane="random" departSpeed="30" />
    <vehicle id="D_F_82" type="standard_car" route="D_F" depart="361.0" departLane="random" departSpeed="30" />
    <vehicle id="G_AF_83" type="standard_car" route="G_AF" depart="361.0" departLane="random" departSpeed="30" />
    <vehicle id="AF_F_84" type="standard_car" route="AF_F" depart="362.0" departLane="random" departSpeed="30" />
    <vehicle id="G_AF_85" type="standard_car" route="G_AF" depart="364.0" departLane="random" departSpeed="30" />
    <vehicle id="D_F_86" type="standard_car" route="D_F" depart="367.0" departLane="random" departSpeed="30" />
    <vehicle id="G_AF_87" type="standard_car" route="G_AF" depart="367.0" departLane="random" departSpeed="30" />
    <vehicle id="F_D_88" type="standard_car" route="F_D" depart="368.0" departLane="random" departSpeed="30" />
    <vehicle id="F_D_89" type="standard_car" route="F_D" depart="371.0" departLane="random" departSpeed="30" />
    <vehicle id="D_F_90" type="standard_car" route="D_F" depart="371.0" departLane="random" departSpeed="30" />
    <vehicle id="D_F_91" type="standard_car" route="D_F" depart="373.0" departLane="random" departSpeed="30" />
    <vehicle id="D_G_92" type="standard_car" route="D_G" depart="373.0" departLane="random" departSpeed="30" />
    <vehicle id="G_AF_93" type="standard_car" route="G_AF" depart="378.0" departLane="random" departSpeed="30" />
    <vehicle id="AF_G_94" type="standard_car" route="AF_G" depart="378.0" departLane="random" departSpeed="30" />
    <vehicle id="F_G_95" type="standard_car" route="F_G" depart="379.0" departLane="random" departSpeed="30" />
    <vehicle id="D_F_96" type="standard_car" route="D_F" depart="387.0" departLane="random" departSpeed="30" />
    <vehicle id="F_D_97" type="standard_car" route="F_D" depart="387.0" departLane="random" departSpeed="30" />
    <vehicle id="F_G_98" type="standard_car" route="F_G" depart="388.0" departLane="random" departSpeed="30" />
    <vehicle id="G_AF_99" type="standard_car" route="G_AF" depart="388.0" departLane="random" departSpeed="30" />
    <vehicle id="G_AF_100" type="standard_car" route="G_AF" depart="389.0" departLane="random" departSpeed="30" />
    <vehicle id="D_F_101" type="standard_car" route="D_F" depart="391.0" departLane="random" departSpeed="30" />
    <vehicle id="G_AF_102" type="standard_car" route="G_AF" depart="393.0" departLane="random" departSpeed="30" />
    <vehicle id="F_AF_103" type="standard_car" route="F_AF" depart="395.0" departLane="random" departSpeed="30" />
    <vehicle id="F_D_104" type="standard_car" route="F_D" depart="400.0" departLane="random" departSpeed="30" />
    <vehicle id="AF_G_105" type="standard_car" route="AF_G" depart="414.0" departLane="random" departSpeed="30" />
    <vehicle id="F_D_106" type="standard_car" route="F_D" depart="414.0" departLane="random" departSpeed="30" />
    <vehicle id="G_AF_107" type="standard_car" route="G_AF" depart="415.0" departLane="random" departSpeed="30" />
    <vehicle id="AF_G_108" type="standard_car" route="AF_G" depart="415.0" departLane="random" departSpeed="30" />
    <vehicle id="D_F_109" type="standard_car" route="D_F" depart="416.0" departLane="random" departSpeed="30" />
    <vehicle id="G_AF_110" type="standard_car" route="G_AF" depart="427.0" departLane="random" departSpeed="30" />
    <vehicle id="AF_G_111" type="standard_car" route="AF_G" depart="433.0" departLane="random" departSpeed="30" />
    <vehicle id="G_AF_112" type="standard_car" route="G_AF" depart="434.0" departLane="random" departSpeed="30" />
    <vehicle id="F_D_113" type="standard_car" route="F_D" depart="436.0" departLane="random" departSpeed="30" />
    <vehicle id="F_G_114" type="standard_car" route="F_G" depart="436.0" departLane="random" departSpeed="30" />
    <vehicle id="AF_F_115" type="standard_car" route="AF_F" depart="438.0" departLane="random" departSpeed="30" />
    <vehicle id="AF_G_116" type="standard_car" route="AF_G" depart="439.0" departLane="random" departSpeed="30" />
    <vehicle id="F_D_117" type="standard_car" route="F_D" depart="439.0" departLane="random" departSpeed="30" />
    <vehicle id="F_D_118" type="standard_car" route="F_D" depart="440.0" departLane="random" departSpeed="30" />
    <vehicle id="D_F_119" type="standard_car" route="D_F" depart="441.0" departLane="random" departSpeed="30" />
    <vehicle id="D_F_120" type="standard_car" route="D_F" depart="442.0" departLane="random" departSpeed="30" />
    <vehicle id="G_AF_121" type="standard_car" route="G_AF" depart="448.0" departLane="random" departSpeed="30" />
    <vehicle id="F_G_122" type="standard_car" route="F_G" depart="449.0" departLane="random" departSpeed="30" />
    <vehicle id="D_F_123" type="standard_car" route="D_F" depart="449.0" departLane="random" departSpeed="30" />
    <vehicle id="G_D_124" type="standard_car" route="G_D" depart="452.0" departLane="random" departSpeed="30" />
    <vehicle id="F_AF_125" type="standard_car" route="F_AF" depart="453.0" departLane="random" departSpeed="30" />
    <vehicle id="F_AF_126" type="standard_car" route="F_AF" depart="456.0" departLane="random" departSpeed="30" />
    <vehicle id="AF_G_127" type="standard_car" route="AF_G" depart="461.0" departLane="random" departSpeed="30" />
    <vehicle id="G_AF_128" type="standard_car" route="G_AF" depart="461.0" departLane="random" departSpeed="30" />
    <vehicle id="F_D_129" type="standard_car" route="F_D" depart="464.0" departLane="random" departSpeed="30" />
    <vehicle id="AF_D_130" type="standard_car" route="AF_D" depart="466.0" departLane="random" departSpeed="30" />
    <vehicle id="AF_G_131" type="standard_car" route="AF_G" depart="467.0" departLane="random" departSpeed="30" />
    <vehicle id="G_F_132" type="standard_car" route="G_F" depart="468.0" departLane="random" departSpeed="30" />
    <vehicle id="D_F_133" type="standard_car" route="D_F" depart="469.0" departLane="random" departSpeed="30" />
    <vehicle id="G_AF_134" type="standard_car" route="G_AF" depart="472.0" departLane="random" departSpeed="30" />
    <vehicle id="F_D_135" type="standard_car" route="F_D" depart="473.0" departLane="random" departSpeed="30" />
    <vehicle id="G_AF_136" type="standard_car" route="G_AF" depart="474.0" departLane="random" departSpeed="30" />
    <vehicle id="F_D_137" type="standard_car" route="F_D" depart="475.0" departLane="random" departSpeed="30" />
    <vehicle id="D_G_138" type="standard_car" route="D_G" depart="476.0" departLane="random" departSpeed="30" />
    <vehicle id="G_AF_139" type="standard_car" route="G_AF" depart="477.0" departLane="random" departSpeed="30" />
    <vehicle id="AF_G_140" type="standard_car" route="AF_G" depart="478.0" departLane="random" departSpeed="30" />
    <vehicle id="D_F_141" type="standard_car" route="D_F" depart="481.0" departLane="random" departSpeed="30" />
    <vehicle id="AF_G_142" type="standard_car" route="AF_G" depart="483.0" departLane="random" departSpeed="30" />
    <vehicle id="AF_G_143" type="standard_car" route="AF_G" depart="483.0" departLane="random" departSpeed="30" />
    <vehicle id="G_F_144" type="standard_car" route="G_F" depart="487.0" departLane="random" departSpeed="30" />
    <vehicle id="D_F_145" type="standard_car" route="D_F" depart="489.0" departLane="random" departSpeed="30" />
    <vehicle id="G_AF_146" type="standard_car" route="G_AF" depart="489.0" departLane="random" departSpeed="30" />
    <vehicle id="D_F_147" type="standard_car" route="D_F" depart="492.0" departLane="random" departSpeed="30" />
    <vehicle id="G_AF_148" type="standard_car" route="G_AF" depart="493.0" departLane="random" departSpeed="30" />
    <vehicle id="F_D_149" type="standard_car" route="F_D" depart="494.0" departLane="random" departSpeed="30" />
    <vehicle id="AF_G_150" type="standard_car" route="AF_G" depart="495.0" departLane="random" departSpeed="30" />
    <vehicle id="F_D_151" type="standard_car" route="F_D" depart="496.0" departLane="random" departSpeed="30" />
    <vehicle id="G_AF_152" type="standard_car" route="G_AF" depart="497.0" departLane="random" departSpeed="30" />
    <vehicle id="G_AF_153" type="standard_car" route="G_AF" depart="498.0" departLane="random" departSpeed="30" />
    <vehicle id="D_AF_154" type="standard_car" route="D_AF" depart="499.0" departLane="random" departSpeed="30" />
    <vehicle id="G_AF_155" type="standard_car" route="G_AF" depart="501.0" departLane="random" departSpeed="30" />
    <vehicle id="AF_G_156" type="standard_car" route="AF_G" depart="503.0" departLane="random" departSpeed="30" />
    <vehicle id="F_D_157" type="standard_car" route="F_D" depart="506.0" departLane="random" departSpeed="30" />
    <vehicle id="G_F_158" type="standard_car" route="G_F" depart="507.0" departLane="random" departSpeed="30" />
    <vehicle id="AF_G_159" type="standard_car" route="AF_G" depart="509.0" departLane="random" departSpeed="30" />
    <vehicle id="D_G_160" type="standard_car" route="D_G" depart="509.0" departLane="random" departSpeed="30" />
    <vehicle id="D_F_161" type="standard_car" route="D_F" depart="510.0" departLane="random" departSpeed="30" />
    <vehicle id="G_AF_162" type="standard_car" route="G_AF" depart="512.0" departLane="random" departSpeed="30" />
    <vehicle id="G_AF_163" type="standard_car" route="G_AF" depart="515.0" departLane="random" departSpeed="30" />
    <vehicle id="D_F_164" type="standard_car" route="D_F" depart="515.0" departLane="random" departSpeed="30" />
    <vehicle id="D_F_165" type="standard_car" route="D_F" depart="518.0" departLane="random" departSpeed="30" />
    <vehicle id="D_F_166" type="standard_car" route="D_F" depart="520.0" departLane="random" departSpeed="30" />
    <vehicle id="G_AF_167" type="standard_car" route="G_AF" depart="521.0" departLane="random" departSpeed="30" />
    <vehicle id="D_F_168" type="standard_car" route="D_F" depart="522.0" departLane="random" departSpeed="30" />
    <vehicle id="G_AF_169" type="standard_car" route="G_AF" depart="523.0" departLane="random" departSpeed="30" />
    <vehicle id="G_AF_170" type="standard_car" route="G_AF" depart="523.0" departLane="random" departSpeed="30" />
    <vehicle id="AF_G_171" type="standard_car" route="AF_G" depart="524.0" departLane="random" departSpeed="30" />
    <vehicle id="F_D_172" type="standard_car" route="F_D" depart="525.0" departLane="random" departSpeed="30" />
    <vehicle id="F_D_173" type="standard_car" route="F_D" depart="526.0" departLane="random" departSpeed="30" />
    <vehicle id="AF_G_174" type="standard_car" route="AF_G" depart="527.0" departLane="random" departSpeed="30" />
    <vehicle id="D_F_175" type="standard_car" route="D_F" depart="528.0" departLane="random" departSpeed="30" />
    <vehicle id="G_AF_176" type="standard_car" route="G_AF" depart="529.0" departLane="random" departSpeed="30" />
    <vehicle id="G_AF_177" type="standard_car" route="G_AF" depart="532.0" departLane="random" departSpeed="30" />
    <vehicle id="F_D_178" type="standard_car" route="F_D" depart="534.0" departLane="random" departSpeed="30" />
    <vehicle id="F_AF_179" type="standard_car" route="F_AF" depart="534.0" departLane="random" departSpeed="30" />
    <vehicle id="F_D_180" type="standard_car" route="F_D" depart="536.0" departLane="random" departSpeed="30" />
    <vehicle id="AF_G_181" type="standard_car" route="AF_G" depart="536.0" departLane="random" departSpeed="30" />
    <vehicle id="D_F_182" type="standard_car" route="D_F" depart="538.0" departLane="random" departSpeed="30" />
    <vehicle id="F_D_183" type="standard_car" route="F_D" depart="538.0" departLane="random" departSpeed="30" />
    <vehicle id="D_F_184" type="standard_car" route="D_F" depart="538.0" departLane="random" departSpeed="30" />
    <vehicle id="D_F_185" type="standard_car" route="D_F" depart="539.0" departLane="random" departSpeed="30" />
    <vehicle id="F_D_186" type="standard_car" route="F_D" depart="543.0" departLane="random" departSpeed="30" />
    <vehicle id="F_AF_187" type="standard_car" route="F_AF" depart="543.0" departLane="random" departSpeed="30" />
    <vehicle id="D_F_188" type="standard_car" route="D_F" depart="545.0" departLane="random" departSpeed="30" />
    <vehicle id="D_F_189" type="standard_car" route="D_F" depart="546.0" departLane="random" departSpeed="30" />
    <vehicle id="G_AF_190" type="standard_car" route="G_AF" depart="548.0" departLane="random" departSpeed="30" />
    <vehicle id="G_AF_191" type="standard_car" route="G_AF" depart="548.0" departLane="random" departSpeed="30" />
    <vehicle id="G_AF_192" type="standard_car" route="G_AF" depart="549.0" departLane="random" departSpeed="30" />
    <vehicle id="D_F_193" type="standard_car" route="D_F" depart="550.0" departLane="random" departSpeed="30" />
    <vehicle id="F_D_194" type="standard_car" route="F_D" depart="551.0" departLane="random" departSpeed="30" />
    <vehicle id="G_AF_195" type="standard_car" route="G_AF" depart="554.0" departLane="random" departSpeed="30" />
    <vehicle id="G_AF_196" type="standard_car" route="G_AF" depart="557.0" departLane="random" departSpeed="30" />
    <vehicle id="AF_G_197" type="standard_car" route="AF_G" depart="557.0" departLane="random" departSpeed="30" />
    <vehicle id="D_AF_198" type="standard_car" route="D_AF" depart="558.0" departLane="random" departSpeed="30" />
    <vehicle id="F_D_199" type="standard_car" route="F_D" depart="558.0" departLane="random" departSpeed="30" />
    <vehicle id="D_AF_200" type="standard_car" route="D_AF" depart="562.0" departLane="random" departSpeed="30" />
    <vehicle id="D_F_201" type="standard_car" route="D_F" depart="563.0" departLane="random" departSpeed="30" />
    <vehicle id="AF_G_202" type="standard_car" route="AF_G" depart="565.0" departLane="random" departSpeed="30" />
    <vehicle id="AF_F_203" type="standard_car" route="AF_F" depart="565.0" departLane="random" departSpeed="30" />
    <vehicle id="G_D_204" type="standard_car" route="G_D" depart="565.0" departLane="random" departSpeed="30" />
    <vehicle id="F_D_205" type="standard_car" route="F_D" depart="567.0" departLane="random" departSpeed="30" />
    <vehicle id="G_D_206" type="standard_car" route="G_D" depart="570.0" departLane="random" departSpeed="30" />
    <vehicle id="G_D_207" type="standard_car" route="G_D" depart="571.0" departLane="random" departSpeed="30" />
    <vehicle id="G_AF_208" type="standard_car" route="G_AF" depart="574.0" departLane="random" departSpeed="30" />
    <vehicle id="G_AF_209" type="standard_car" route="G_AF" depart="576.0" departLane="random" departSpeed="30" />
    <vehicle id="G_D_210" type="standard_car" route="G_D" depart="577.0" departLane="random" departSpeed="30" />
    <vehicle id="D_F_211" type="standard_car" route="D_F" depart="578.0" departLane="random" departSpeed="30" />
    <vehicle id="D_F_212" type="standard_car" route="D_F" depart="578.0" departLane="random" departSpeed="30" />
    <vehicle id="G_AF_213" type="standard_car" route="G_AF" depart="579.0" departLane="random" departSpeed="30" />
    <vehicle id="AF_D_214" type="standard_car" route="AF_D" depart="582.0" departLane="random" departSpeed="30" />
    <vehicle id="G_F_215" type="standard_car" route="G_F" depart="583.0" departLane="random" departSpeed="30" />
    <vehicle id="D_F_216" type="standard_car" route="D_F" depart="587.0" departLane="random" departSpeed="30" />
    <vehicle id="D_AF_217" type="standard_car" route="D_AF" depart="587.0" departLane="random" departSpeed="30" />
    <vehicle id="F_D_218" type="standard_car" route="F_D" depart="588.0" departLane="random" departSpeed="30" />
    <vehicle id="D_F_219" type="standard_car" route="D_F" depart="589.0" departLane="random" departSpeed="30" />
    <vehicle id="F_D_220" type="standard_car" route="F_D" depart="589.0" departLane="random" departSpeed="30" />
    <vehicle id="AF_G_221" type="standard_car" route="AF_G" depart="590.0" departLane="random" departSpeed="30" />
    <vehicle id="G_AF_222" type="standard_car" route="G_AF" depart="592.0" departLane="random" departSpeed="30" />
    <vehicle id="F_G_223" type="standard_car" route="F_G" depart="594.0" departLane="random" departSpeed="30" />
    <vehicle id="AF_G_224" type="standard_car" route="AF_G" depart="597.0" departLane="random" departSpeed="30" />
    <vehicle id="F_D_225" type="standard_car" route="F_D" depart="597.0" departLane="random" departSpeed="30" />
    <vehicle id="D_F_226" type="standard_car" route="D_F" depart="598.0" departLane="random" departSpeed="30" />
    <vehicle id="AF_G_227" type="standard_car" route="AF_G" depart="599.0" departLane="random" departSpeed="30" />
    <vehicle id="F_D_228" type="standard_car" route="F_D" depart="602.0" departLane="random" departSpeed="30" />
    <vehicle id="AF_G_229" type="standard_car" route="AF_G" depart="604.0" departLane="random" departSpeed="30" />
    <vehicle id="D_AF_230" type="standard_car" route="D_AF" depart="604.0" departLane="random" departSpeed="30" />
    <vehicle id="F_D_231" type="standard_car" route="F_D" depart="605.0" departLane="random" departSpeed="30" />
    <vehicle id="F_D_232" type="standard_car" route="F_D" depart="605.0" departLane="random" departSpeed="30" />
    <vehicle id="AF_G_233" type="standard_car" route="AF_G" depart="606.0" departLane="random" departSpeed="30" />
    <vehicle id="G_AF_234" type="standard_car" route="G_AF" depart="608.0" departLane="random" departSpeed="30" />
    <vehicle id="D_AF_235" type="standard_car" route="D_AF" depart="614.0" departLane="random" departSpeed="30" />
    <vehicle id="D_F_236" type="standard_car" route="D_F" depart="615.0" departLane="random" departSpeed="30" />
    <vehicle id="AF_G_237" type="standard_car" route="AF_G" depart="616.0" departLane="random" departSpeed="30" />
    <vehicle id="D_F_238" type="standard_car" route="D_F" depart="616.0" departLane="random" departSpeed="30" />
    <vehicle id="AF_F_239" type="standard_car" route="AF_F" depart="618.0" departLane="random" departSpeed="30" />
    <vehicle id="AF_G_240" type="standard_car" route="AF_G" depart="620.0" departLane="random" departSpeed="30" />
    <vehicle id="G_F_241" type="standard_car" route="G_F" depart="620.0" departLane="random" departSpeed="30" />
    <vehicle id="G_F_242" type="standard_car" route="G_F" depart="624.0" departLane="random" departSpeed="30" />
    <vehicle id="F_G_243" type="standard_car" route="F_G" depart="625.0" departLane="random" departSpeed="30" />
    <vehicle id="AF_G_244" type="standard_car" route="AF_G" depart="625.0" departLane="random" departSpeed="30" />
    <vehicle id="F_D_245" type="standard_car" route="F_D" depart="629.0" departLane="random" departSpeed="30" />
    <vehicle id="F_G_246" type="standard_car" route="F_G" depart="632.0" departLane="random" departSpeed="30" />
    <vehicle id="G_AF_247" type="standard_car" route="G_AF" depart="632.0" departLane="random" departSpeed="30" />
    <vehicle id="F_G_248" type="standard_car" route="F_G" depart="633.0" departLane="random" departSpeed="30" />
    <vehicle id="D_F_249" type="standard_car" route="D_F" depart="635.0" departLane="random" departSpeed="30" />
    <vehicle id="G_AF_250" type="standard_car" route="G_AF" depart="635.0" departLane="random" departSpeed="30" />
    <vehicle id="AF_D_251" type="standard_car" route="AF_D" depart="636.0" departLane="random" departSpeed="30" />
    <vehicle id="D_F_252" type="standard_car" route="D_F" depart="636.0" departLane="random" departSpeed="30" />
    <vehicle id="G_AF_253" type="standard_car" route="G_AF" depart="637.0" departLane="random" departSpeed="30" />
    <vehicle id="AF_G_254" type="standard_car" route="AF_G" depart="638.0" departLane="random" departSpeed="30" />
    <vehicle id="G_AF_255" type="standard_car" route="G_AF" depart="639.0" departLane="random" departSpeed="30" />