<routes>
            <vType accel="1.0" decel="4.5" id="standard_car" length="5.0" minGap="2.5" maxSpeed="40" sigma="0.5" />

            <route id="D_F" edges="D2I D2 I2F"/>#F=FSSM/AF=Allal lfasi/D=bab dkala/G=gueliz
            <route id="D_AF_2" edges="D2I D2 2AF I2AF"/>
            <route id="D_AF" edges="D2I D2AF_2 I2AF"/>
            <route id="D_G" edges="D2I D2 I2G"/>
            <route id="F_D" edges="F2I I2D"/>
            <route id="F_AF" edges="F2I 2AF I2AF"/>
            <route id="F_G" edges="F2I I2G"/>
            <route id="AF_F" edges="AF2I I2F"/>
            <route id="AF_G" edges="AF2I I2G"/>
            <route id="AF_D" edges="AF2I I2D"/>
            <route id="G_D" edges="G2I I2D"/>
            <route id="G_AF" edges="G2I 2AF I2AF"/>
            <route id="G_F" edges="G2I I2F"/>
    <vehicle id="G_D_0" type="standard_car" route="G_D" depart="101.0" departLane="random" departSpeed="30" />
    <vehicle id="F_D_0" type="standard_car" route="F_D" depart="101.0" departLane="random" departSpeed="30" />
    <vehicle id="G_F_1" type="standard_car" route="G_F" depart="107.0" departLane="random" departSpeed="30" />
    <vehicle id="F_D_1" type="standard_car" route="F_D" depart="107.0" departLane="random" departSpeed="30" />
    <vehicle id="G_AF_2" type="standard_car" route="G_AF" depart="118.0" departLane="random" departSpeed="30" />
    <vehicle id="G_AF_3" type="standard_car" route="G_AF" depart="131.0" departLane="random" departSpeed="30" />
    <vehicle id="G_AF_4" type="standard_car" route="G_AF" depart="138.0" departLane="random" departSpeed="30" />
    <vehicle id="G_AF_5" type="standard_car" route="G_AF" depart="161.0" departLane="random" departSpeed="30" />
    <vehicle id="AF_G_6" type="standard_car" route="AF_G" depart="173.0" departLane="random" departSpeed="30" />
    <vehicle id="AF_G_7" type="standard_car" route="AF_G" depart="179.0" departLane="random" departSpeed="30" />
    <vehicle id="G_AF_8" type="standard_car" route="G_AF" depart="194.0" departLane="random" departSpeed="30" />
    <vehicle id="AF_F_9" type="standard_car" route="AF_F" depart="211.0" departLane="random" departSpeed="30" />
    <vehicle id="F_D_9" type="standard_car" route="F_D" depart="211.0" departLane="random" departSpeed="30" />
    <vehicle id="G_AF_10" type="standard_car" route="G_AF" depart="214.0" departLane="random" departSpeed="30" />
    <vehicle id="G_AF_11" type="standard_car" route="G_AF" depart="217.0" departLane="random" departSpeed="30" />
    <vehicle id="AF_G_12" type="standard_car" route="AF_G" depart="235.0" departLane="random" departSpeed="30" />
    <vehicle id="AF_G_13" type="standard_car" route="AF_G" depart="244.0" departLane="random" departSpeed="30" />
    <vehicle id="AF_G_14" type="standard_car" route="AF_G" depart="267.0" departLane="random" departSpeed="30" />
    <vehicle id="AF_G_15" type="standard_car" route="AF_G" depart="267.0" departLane="random" departSpeed="30" />
    <vehicle id="G_AF_16" type="standard_car" route="G_AF" depart="274.0" departLane="random" departSpeed="30" />
    <vehicle id="AF_G_17" type="standard_car" route="AF_G" depart="280.0" departLane="random" departSpeed="30" />
    <vehicle id="G_D_18" type="standard_car" route="G_D" depart="285.0" departLane="random" departSpeed="30" />
    <vehicle id="F_D_18" type="standard_car" route="F_D" depart="285.0" departLane="random" departSpeed="30" />
    <vehicle id="AF_D_19" type="standard_car" route="AF_D" depart="295.0" departLane="random" departSpeed="30" />
    <vehicle id="F_D_19" type="standard_car" route="F_D" depart="295.0" departLane="random" departSpeed="30" />
    <vehicle id="G_AF_20" type="standard_car" route="G_AF" depart="299.0" departLane="random" departSpeed="30" />
    <vehicle id="G_AF_21" type="standard_car" route="G_AF" depart="302.0" departLane="random" departSpeed="30" />
    <vehicle id="G_AF_22" type="standard_car" route="G_AF" depart="321.0" departLane="random" departSpeed="30" />
    <vehicle id="F_G_23" type="standard_car" route="F_G" depart="323.0" departLane="random" departSpeed="30" />
    <vehicle id="F_D_23" type="standard_car" route="F_D" depart="323.0" departLane="random" departSpeed="30" />
    <vehicle id="G_D_24" type="standard_car" route="G_D" depart="325.0" departLane="random" departSpeed="30" />
    <vehicle id="F_D_24" type="standard_car" route="F_D" depart="325.0" departLane="random" departSpeed="30" />
    <vehicle id="G_AF_25" type="standard_car" route="G_AF" depart="326.0" departLane="random" departSpeed="30" />
    <vehicle id="AF_G_26" type="standard_car" route="AF_G" depart="329.0" departLane="random" departSpeed="30" />
    <vehicle id="G_F_27" type="standard_car" route="G_F" depart="333.0" departLane="random" departSpeed="30" />
    <vehicle id="F_D_27" type="standard_car" route="F_D" depart="333.0" departLane="random" departSpeed="30" />
    <vehicle id="AF_G_28" type="standard_car" route="AF_G" depart="333.0" departLane="random" departSpeed="30" />
    <vehicle id="F_AF_29" type="standard_car" route="F_AF" depart="333.0" departLane="random" departSpeed="30" />
    <vehicle id="F_D_29" type="standard_car" route="F_D" depart="333.0" departLane="random" departSpeed="30" />
    <vehicle id="AF_G_30" type="standard_car" route="AF_G" depart="335.0" departLane="random" departSpeed="30" />
    <vehicle id="AF_G_31" type="standard_car" route="AF_G" depart="343.0" departLane="random" departSpeed="30" />
    <vehicle id="AF_G_32" type="standard_car" route="AF_G" depart="347.0" departLane="random" departSpeed="30" />
    <vehicle id="G_AF_33" type="standard_car" route="G_AF" depart="347.0" departLane="random" departSpeed="30" />
    <vehicle id="AF_G_34" type="standard_car" route="AF_G" depart="348.0" departLane="random" departSpeed="30" />
    <vehicle id="AF_G_35" type="standard_car" route="AF_G" depart="356.0" departLane="random" departSpeed="30" />
    <vehicle id="AF_G_36" type="standard_car" route="AF_G" depart="356.0" departLane="random" departSpeed="30" />
    <vehicle id="G_AF_37" type="standard_car" route="G_AF" depart="371.0" departLane="random" departSpeed="30" />
    <vehicle id="D_F_38" type="standard_car" route="D_F" depart="378.0" departLane="random" departSpeed="30" />
    <vehicle id="F_G_39" type="standard_car" route="F_G" depart="382.0" departLane="random" departSpeed="30" />
    <vehicle id="F_D_39" type="standard_car" route="F_D" depart="382.0" departLane="random" departSpeed="30" />
    <vehicle id="AF_G_40" type="standard_car" route="AF_G" depart="391.0" departLane="random" departSpeed="30" />
    <vehicle id="AF_G_41" type="standard_car" route="AF_G" depart="407.0" departLane="random" departSpeed="30" />
    <vehicle id="G_AF_42" type="standard_car" route="G_AF" depart="409.0" departLane="random" departSpeed="30" />
    <vehicle id="AF_G_43" type="standard_car" route="AF_G" depart="414.0" departLane="random" departSpeed="30" />
    <vehicle id="AF_G_44" type="standard_car" route="AF_G" depart="415.0" departLane="random" departSpeed="30" />
    <vehicle id="AF_G_45" type="standard_car" route="AF_G" depart="425.0" departLane="random" departSpeed="30" />
    <vehicle id="AF_G_46" type="standard_car" route="AF_G" depart="429.0" departLane="random" departSpeed="30" />
    <vehicle id="G_AF_47" type="standard_car" route="G_AF" depart="438.0" departLane="random" departSpeed="30" />
    <vehicle id="AF_G_48" type="standard_car" route="AF_G" depart="450.0" departLane="random" departSpeed="30" />
    <vehicle id="G_AF_49" type="standard_car" route="G_AF" depart="454.0" departLane="random" departSpeed="30" />
    <vehicle id="G_AF_50" type="standard_car" route="G_AF" depart="461.0" departLane="random" departSpeed="30" />
    <vehicle id="AF_G_51" type="standard_car" route="AF_G" depart="462.0" departLane="random" departSpeed="30" />
    <vehicle id="G_AF_52" type="standard_car" route="G_AF" depart="463.0" departLane="random" departSpeed="30" />
    <vehicle id="G_AF_53" type="standard_car" route="G_AF" depart="465.0" departLane="random" departSpeed="30" />
    <vehicle id="G_AF_54" type="standard_car" route="G_AF" depart="476.0" departLane="random" departSpeed="30" />
    <vehicle id="F_G_55" type="standard_car" route="F_G" depart="477.0" departLane="random" departSpeed="30" />
    <vehicle id="F_D_55" type="standard_car" route="F_D" depart="477.0" departLane="random" departSpeed="30" />
    <vehicle id="G_D_56" type="standard_car" route="G_D" depart="477.0" departLane="random" departSpeed="30" />
    <vehicle id="F_D_56" type="standard_car" route="F_D" depart="477.0" departLane="random" departSpeed="30" />
    <vehicle id="AF_G_57" type="standard_car" route="AF_G" depart="481.0" departLane="random" departSpeed="30" />
    <vehicle id="G_AF_58" type="standard_car" route="G_AF" depart="484.0" departLane="random" departSpeed="30" />
    <vehicle id="G_AF_59" type="standard_car" route="G_AF" depart="484.0" departLane="random" departSpeed="30" />
    <vehicle id="G_AF_60" type="standard_car" route="G_AF" depart="486.0" departLane="random" departSpeed="30" />
    <vehicle id="F_G_61" type="standard_car" route="F_G" depart="496.0" departLane="random" departSpeed="30" />
    <vehicle id="F_D_61" type="standard_car" route="F_D" depart="496.0" departLane="random" departSpeed="30" />
    <vehicle id="G_AF_62" type="standard_car" route="G_AF" depart="498.0" departLane="random" departSpeed="30" />
    <vehicle id="AF_G_63" type="standard_car" route="AF_G" depart="501.0" departLane="random" departSpeed="30" />
    <vehicle id="AF_G_64" type="standard_car" route="AF_G" depart="508.0" departLane="random" departSpeed="30" />
    <vehicle id="G_AF_65" type="standard_car" route="G_AF" depart="508.0" departLane="random" departSpeed="30" />
    <vehicle id="AF_G_66" type="standard_car" route="AF_G" depart="509.0" departLane="random" departSpeed="30" />
    <vehicle id="AF_D_67" type="standard_car" route="AF_D" depart="512.0" departLane="random" departSpeed="30" />
    <vehicle id="F_D_67" type="standard_car" route="F_D" depart="512.0" departLane="random" departSpeed="30" />
    <vehicle id="AF_G_68" type="standard_car" route="AF_G" depart="513.0" departLane="random" departSpeed="30" />
    <vehicle id="AF_G_69" type="standard_car" route="AF_G" depart="513.0" departLane="random" departSpeed="30" />
    <vehicle id="AF_G_70" type="standard_car" route="AF_G" depart="519.0" departLane="random" departSpeed="30" />
    <vehicle id="AF_G_71" type="standard_car" route="AF_G" depart="524.0" departLane="random" departSpeed="30" />
    <vehicle id="G_AF_72" type="standard_car" route="G_AF" depart="529.0" departLane="random" departSpeed="30" />
    <vehicle id="F_G_73" type="standard_car" route="F_G" depart="531.0" departLane="random" departSpeed="30" />
    <vehicle id="F_D_73" type="standard_car" route="F_D" depart="531.0" departLane="random" departSpeed="30" />
    <vehicle id="D_G_74" type="standard_car" route="D_G" depart="535.0" departLane="random" departSpeed="30" />
    <vehicle id="F_D_74" type="standard_car" route="F_D" depart="535.0" departLane="random" departSpeed="30" />
    <vehicle id="F_D_75" type="standard_car" route="F_D" depart="537.0" departLane="random" departSpeed="30" />
    <vehicle id="G_AF_76" type="standard_car" route="G_AF" depart="538.0" departLane="random" departSpeed="30" />
    <vehicle id="G_AF_77" type="standard_car" route="G_AF" depart="541.0" departLane="random" departSpeed="30" />
    <vehicle id="G_AF_78" type="standard_car" route="G_AF" depart="545.0" departLane="random" departSpeed="30" />
    <vehicle id="G_AF_79" type="standard_car" route="G_AF" depart="549.0" departLane="random" departSpeed="30" />
    <vehicle id="AF_G_80" type="standard_car" route="AF_G" depart="549.0" departLane="random" departSpeed="30" />
    <vehicle id="D_AF_81" type="standard_car" route="D_AF" depart="550.0" departLane="random" departSpeed="30" />
    <vehicle id="F_D_81" type="standard_car" route="F_D" depart="550.0" departLane="random" departSpeed="30" />
    <vehicle id="AF_G_82" type="standard_car" route="AF_G" depart="552.0" departLane="random" departSpeed="30" />
    <vehicle id="D_G_83" type="standard_car" route="D_G" depart="553.0" departLane="random" departSpeed="30" />
    <vehicle id="F_D_83" type="standard_car" route="F_D" depart="553.0" departLane="random" departSpeed="30" />
    <vehicle id="G_AF_84" type="standard_car" route="G_AF" depart="557.0" departLane="random" departSpeed="30" />
    <vehicle id="G_AF_85" type="standard_car" route="G_AF" depart="560.0" departLane="random" departSpeed="30" />
    <vehicle id="G_AF_86" type="standard_car" route="G_AF" depart="563.0" departLane="random" departSpeed="30" />
    <vehicle id="G_AF_87" type="standard_car" route="G_AF" depart="568.0" departLane="random" departSpeed="30" />
    <vehicle id="AF_F_88" type="standard_car" route="AF_F" depart="575.0" departLane="random" departSpeed="30" />
    <vehicle id="F_D_88" type="standard_car" route="F_D" depart="575.0" departLane="random" departSpeed="30" />
    <vehicle id="D_G_89" type="standard_car" route="D_G" depart="589.0" departLane="random" departSpeed="30" />
    <vehicle id="F_D_89" type="standard_car" route="F_D" depart="589.0" departLane="random" departSpeed="30" />
    <vehicle id="AF_G_90" type="standard_car" route="AF_G" depart="594.0" departLane="random" departSpeed="30" />
    <vehicle id="AF_G_91" type="standard_car" route="AF_G" depart="594.0" departLane="random" departSpeed="30" />
    <vehicle id="G_AF_92" type="standard_car" route="G_AF" depart="599.0" departLane="random" departSpeed="30" />
    <vehicle id="AF_G_93" type="standard_car" route="AF_G" depart="601.0" departLane="random" departSpeed="30" />
    <vehicle id="AF_G_94" type="standard_car" route="AF_G" depart="605.0" departLane="random" departSpeed="30" />
    <vehicle id="G_AF_95" type="standard_car" route="G_AF" depart="608.0" departLane="random" departSpeed="30" />
    <vehicle id="AF_G_96" type="standard_car" route="AF_G" depart="609.0" departLane="random" departSpeed="30" />
    <vehicle id="AF_G_97" type="standard_car" route="AF_G" depart="614.0" departLane="random" departSpeed="30" />
    <vehicle id="AF_G_98" type="standard_car" route="AF_G" depart="617.0" departLane="random" departSpeed="30" />
    <vehicle id="G_AF_99" type="standard_car" route="G_AF" depart="618.0" departLane="random" departSpeed="30" />
    <vehicle id="AF_G_100" type="standard_car" route="AF_G" depart="621.0" departLane="random" departSpeed="30" />
    <vehicle id="AF_G_101" type="standard_car" route="AF_G" depart="622.0" departLane="random" departSpeed="30" />
    <vehicle id="G_AF_102" type="standard_car" route="G_AF" depart="623.0" departLane="random" departSpeed="30" />
    <vehicle id="G_D_103" type="standard_car" route="G_D" depart="628.0" departLane="random" departSpeed="30" />
    <vehicle id="F_D_103" type="standard_car" route="F_D" depart="628.0" departLane="random" departSpeed="30" />
    <vehicle id="AF_G_104" type="standard_car" route="AF_G" depart="630.0" departLane="random" departSpeed="30" />
    <vehicle id="G_AF_105" type="standard_car" route="G_AF" depart="630.0" departLane="random" departSpeed="30" />
    <vehicle id="AF_G_106" type="standard_car" route="AF_G" depart="635.0" departLane="random" departSpeed="30" />
    <vehicle id="G_AF_107" type="standard_car" route="G_AF" depart="636.0" departLane="random" departSpeed="30" />
    <vehicle id="AF_G_108" type="standard_car" route="AF_G" depart="636.0" departLane="random" departSpeed="30" />
    <vehicle id="AF_G_109" type="standard_car" route="AF_G" depart="637.0" departLane="random" departSpeed="30" />
    <vehicle id="G_AF_110" type="standard_car" route="G_AF" depart="638.0" departLane="random" departSpeed="30" />
    <vehicle id="G_AF_111" type="standard_car" route="G_AF" depart="643.0" departLane="random" departSpeed="30" />
    <vehicle id="G_AF_112" type="standard_car" route="G_AF" depart="644.0" departLane="random" departSpeed="30" />
    <vehicle id="AF_G_113" type="standard_car" route="AF_G" depart="649.0" departLane="random" departSpeed="30" />
    <vehicle id="AF_G_114" type="standard_car" route="AF_G" depart="652.0" departLane="random" departSpeed="30" />
    <vehicle id="G_AF_115" type="standard_car" route="G_AF" depart="655.0" departLane="random" departSpeed="30" />
    <vehicle id="AF_F_116" type="standard_car" route="AF_F" depart="656.0" departLane="random" departSpeed="30" />
    <vehicle id="F_D_116" type="standard_car" route="F_D" depart="656.0" departLane="random" departSpeed="30" />
    <vehicle id="AF_G_117" type="standard_car" route="AF_G" depart="656.0" departLane="random" departSpeed="30" />
    <vehicle id="G_AF_118" type="standard_car" route="G_AF" depart="662.0" departLane="random" departSpeed="30" />
    <vehicle id="AF_G_119" type="standard_car" route="AF_G" depart="664.0" departLane="random" departSpeed="30" />
    <vehicle id="G_AF_120" type="standard_car" route="G_AF" depart="665.0" departLane="random" departSpeed="30" />
    <vehicle id="AF_F_121" type="standard_car" route="AF_F" depart="665.0" departLane="random" departSpeed="30" />
    <vehicle id="F_D_121" type="standard_car" route="F_D" depart="665.0" departLane="random" departSpeed="30" />
    <vehicle id="G_AF_122" type="standard_car" route="G_AF" depart="680.0" departLane="random" departSpeed="30" />
    <vehicle id="AF_G_123" type="standard_car" route="AF_G" depart="682.0" departLane="random" departSpeed="30" />
    <vehicle id="AF_G_124" type="standard_car" route="AF_G" depart="685.0" departLane="random" departSpeed="30" />
    <vehicle id="G_AF_125" type="standard_car" route="G_AF" depart="685.0" departLane="random" departSpeed="30" />
    <vehicle id="AF_G_126" type="standard_car" route="AF_G" depart="686.0" departLane="random" departSpeed="30" />
    <vehicle id="AF_G_127" type="standard_car" route="AF_G" depart="688.0" departLane="random" departSpeed="30" />
    <vehicle id="AF_G_128" type="standard_car" route="AF_G" depart="689.0" departLane="random" departSpeed="30" />
    <vehicle id="AF_G_129" type="standard_car" route="AF_G" depart="692.0" departLane="random" departSpeed="30" />
    <vehicle id="G_AF_130" type="standard_car" route="G_AF" depart="701.0" departLane="random" departSpeed="30" />
    <vehicle id="AF_G_131" type="standard_car" route="AF_G" depart="703.0" departLane="random" departSpeed="30" />
    <vehicle id="AF_G_132" type="standard_car" route="AF_G" depart="713.0" departLane="random" departSpeed="30" />
    <vehicle id="G_AF_133" type="standard_car" route="G_AF" depart="714.0" departLane="random" departSpeed="30" />
    <vehicle id="G_AF_134" type="standard_car" route="G_AF" depart="716.0" departLane="random" departSpeed="30" />
    <vehicle id="G_AF_135" type="standard_car" route="G_AF" depart="716.0" departLane="random" departSpeed="30" />
    <vehicle id="AF_G_136" type="standard_car" route="AF_G" depart="717.0" departLane="random" departSpeed="30" />
    <vehicle id="G_AF_137" type="standard_car" route="G_AF" depart="717.0" departLane="random" departSpeed="30" />
    <vehicle id="AF_G_138" type="standard_car" route="AF_G" depart="717.0" departLane="random" departSpeed="30" />
    <vehicle id="AF_G_139" type="standard_car" route="AF_G" depart="718.0" departLane="random" departSpeed="30" />
    <vehicle id="D_G_140" type="standard_car" route="D_G" depart="721.0" departLane="random" departSpeed="30" />
    <vehicle id="F_D_140" type="standard_car" route="F_D" depart="721.0" departLane="random" departSpeed="30" />
    <vehicle id="D_G_141" type="standard_car" route="D_G" depart="723.0" departLane="random" departSpeed="30" />
    <vehicle id="F_D_141" type="standard_car" route="F_D" depart="723.0" departLane="random" departSpeed="30" />
    <vehicle id="AF_G_142" type="standard_car" route="AF_G" depart="732.0" departLane="random" departSpeed="30" />
    <vehicle id="AF_G_143" type="standard_car" route="AF_G" depart="732.0" departLane="random" departSpeed="30" />
    <vehicle id="G_AF_144" type="standard_car" route="G_AF" depart="736.0" departLane="random" departSpeed="30" />
    <vehicle id="AF_G_145" type="standard_car" route="AF_G" depart="739.0" departLane="random" departSpeed="30" />
    <vehicle id="G_AF_146" type="standard_car" route="G_AF" depart="740.0" departLane="random" departSpeed="30" />
    <vehicle id="G_AF_147" type="standard_car" route="G_AF" depart="742.0" departLane="random" departSpeed="30" />
    <vehicle id="AF_G_148" type="standard_car" route="AF_G" depart="744.0" departLane="random" departSpeed="30" />
    <vehicle id="AF_G_149" type="standard_car" route="AF_G" depart="749.0" departLane="random" departSpeed="30" />
    <vehicle id="G_AF_150" type="standard_car" route="G_AF" depart="749.0" departLane="random" departSpeed="30" />
    <vehicle id="D_F_151" type="standard_car" route="D_F" depart="750.0" departLane="random" departSpeed="30" />
    <vehicle id="G_AF_152" type="standard_car" route="G_AF" depart="751.0" departLane="random" departSpeed="30" />
    <vehicle id="F_AF_153" type="standard_car" route="F_AF" depart="751.0" departLane="random" departSpeed="30" />
    <vehicle id="F_D_153" type="standard_car" route="F_D" depart="751.0" departLane="random" departSpeed="30" />
    <vehicle id="AF_G_154" type="standard_car" route="AF_G" depart="753.0" departLane="random" departSpeed="30" />
    <vehicle id="F_AF_155" type="standard_car" route="F_AF" depart="755.0" departLane="random" departSpeed="30" />
    <vehicle id="F_D_155" type="standard_car" route="F_D" depart="755.0" departLane="random" departSpeed="30" />
    <vehicle id="D_AF_156" type="standard_car" route="D_AF" depart="756.0" departLane="random" departSpeed="30" />
    <vehicle id="F_D_156" type="standard_car" route="F_D" depart="756.0" departLane="random" departSpeed="30" />
    <vehicle id="AF_G_157" type="standard_car" route="AF_G" depart="760.0" departLane="random" departSpeed="30" />
    <vehicle id="AF_G_158" type="standard_car" route="AF_G" depart="764.0" departLane="random" departSpeed="30" />
    <vehicle id="D_F_159" type="standard_car" route="D_F" depart="766.0" departLane="random" departSpeed="30" />
    <vehicle id="AF_G_160" type="standard_car" route="AF_G" depart="768.0" departLane="random" departSpeed="30" />
    <vehicle id="G_AF_161" type="standard_car" route="G_AF" depart="769.0" departLane="random" departSpeed="30" />
    <vehicle id="AF_G_162" type="standard_car" route="AF_G" depart="769.0" departLane="random" departSpeed="30" />
    <vehicle id="G_AF_163" type="standard_car" route="G_AF" depart="771.0" departLane="random" departSpeed="30" />
    <vehicle id="AF_D_164" type="standard_car" route="AF_D" depart="778.0" departLane="random" departSpeed="30" />
    <vehicle id="F_D_164" type="standard_car" route="F_D" depart="778.0" departLane="random" departSpeed="30" />
    <vehicle id="G_AF_165" type="standard_car" route="G_AF" depart="782.0" departLane="random" departSpeed="30" />
    <vehicle id="G_F_166" type="standard_car" route="G_F" depart="783.0" departLane="random" departSpeed="30" />
    <vehicle id="F_D_166" type="standard_car" route="F_D" depart="783.0" departLane="random" departSpeed="30" />
    <vehicle id="G_AF_167" type="standard_car" route="G_AF" depart="785.0" departLane="random" departSpeed="30" />
    <vehicle id="G_AF_168" type="standard_car" route="G_AF" depart="787.0" departLane="random" departSpeed="30" />
    <vehicle id="AF_G_169" type="standard_car" route="AF_G" depart="793.0" departLane="random" departSpeed="30" />
    <vehicle id="D_AF_170" type="standard_car" route="D_AF" depart="797.0" departLane="random" departSpeed="30" />
    <vehicle id="F_D_170" type="standard_car" route="F_D" depart="797.0" departLane="random" departSpeed="30" />
    <vehicle id="F_G_171" type="standard_car" route="F_G" depart="799.0" departLane="random" departSpeed="30" />
    <vehicle id="F_D_171" type="standard_car" route="F_D" depart="799.0" departLane="random" departSpeed="30" />
    <vehicle id="G_AF_172" type="standard_car" route="G_AF" depart="809.0" departLane="random" departSpeed="30" />
    <vehicle id="G_F_173" type="standard_car" route="G_F" depart="814.0" departLane="random" departSpeed="30" />
    <vehicle id="F_D_173" type="standard_car" route="F_D" depart="814.0" departLane="random" departSpeed="30" />
    <vehicle id="G_AF_174" type="standard_car" route="G_AF" depart="814.0" departLane="random" departSpeed="30" />
    <vehicle id="G_AF_175" type="standard_car" route="G_AF" depart="823.0" departLane="random" departSpeed="30" />
    <vehicle id="G_AF_176" type="standard_car" route="G_AF" depart="825.0" departLane="random" departSpeed="30" />
    <vehicle id="G_AF_177" type="standard_car" route="G_AF" depart="826.0" departLane="random" departSpeed="30" />
    <vehicle id="AF_G_178" type="standard_car" route="AF_G" depart="826.0" departLane="random" departSpeed="30" />
    <vehicle id="AF_G_179" type="standard_car" route="AF_G" depart="827.0" departLane="random" departSpeed="30" />
    <vehicle id="AF_G_180" type="standard_car" route="AF_G" depart="832.0" departLane="random" departSpeed="30" />
    <vehicle id="AF_F_181" type="standard_car" route="AF_F" depart="832.0" departLane="random" departSpeed="30" />
    <vehicle id="F_D_181" type="standard_car" route="F_D" depart="832.0" departLane="random" departSpeed="30" />
    <vehicle id="AF_F_182" type="standard_car" route="AF_F" depart="837.0" departLane="random" departSpeed="30" />
    <vehicle id="F_D_182" type="standard_car" route="F_D" depart="837.0" departLane="random" departSpeed="30" />
    <vehicle id="AF_G_183" type="standard_car" route="AF_G" depart="837.0" departLane="random" departSpeed="30" />
    <vehicle id="AF_G_184" type="standard_car" route="AF_G" depart="838.0" departLane="random" departSpeed="30" />
    <vehicle id="G_AF_185" type="standard_car" route="G_AF" depart="838.0" departLane="random" departSpeed="30" />
    <vehicle id="G_AF_186" type="standard_car" route="G_AF" depart="839.0" departLane="random" departSpeed="30" />
    <vehicle id="G_D_187" type="standard_car" route="G_D" depart="840.0" departLane="random" departSpeed="30" />
    <vehicle id="F_D_187" type="standard_car" route="F_D" depart="840.0" departLane="random" departSpeed="30" />
    <vehicle id="G_AF_188" type="standard_car" route="G_AF" depart="841.0" departLane="random" departSpeed="30" />
    <vehicle id="G_AF_189" type="standard_car" route="G_AF" depart="842.0" departLane="random" departSpeed="30" />
    <vehicle id="AF_F_190" type="standard_car" route="AF_F" depart="844.0" departLane="random" departSpeed="30" />
    <vehicle id="F_D_190" type="standard_car" route="F_D" depart="844.0" departLane="random" departSpeed="30" />
    <vehicle id="D_F_191" type="standard_car" route="D_F" depart="845.0" departLane="random" departSpeed="30" />
    <vehicle id="AF_G_192" type="standard_car" route="AF_G" depart="847.0" departLane="random" departSpeed="30" />
    <vehicle id="AF_G_193" type="standard_car" route="AF_G" depart="847.0" departLane="random" departSpeed="30" />
    <vehicle id="AF_F_194" type="standard_car" route="AF_F" depart="848.0" departLane="random" departSpeed="30" />
    <vehicle id="F_D_194" type="standard_car" route="F_D" depart="848.0" departLane="random" departSpeed="30" />
    <vehicle id="G_AF_195" type="standard_car" route="G_AF" depart="853.0" departLane="random" departSpeed="30" />
    <vehicle id="AF_G_196" type="standard_car" route="AF_G" depart="853.0" departLane="random" departSpeed="30" />
    <vehicle id="G_F_197" type="standard_car" route="G_F" depart="858.0" departLane="random" departSpeed="30" />
    <vehicle id="F_D_197" type="standard_car" route="F_D" depart="858.0" departLane="random" departSpeed="30" />
    <vehicle id="F_G_198" type="standard_car" route="F_G" depart="861.0" departLane="random" departSpeed="30" />
    <vehicle id="F_D_198" type="standard_car" route="F_D" depart="861.0" departLane="random" departSpeed="30" />
    <vehicle id="AF_G_199" type="standard_car" route="AF_G" depart="862.0" departLane="random" departSpeed="30" />
    <vehicle id="AF_G_200" type="standard_car" route="AF_G" depart="865.0" departLane="random" departSpeed="30" />
    <vehicle id="AF_G_201" type="standard_car" route="AF_G" depart="868.0" departLane="random" departSpeed="30" />
    <vehicle id="G_AF_202" type="standard_car" route="G_AF" depart="869.0" departLane="random" departSpeed="30" />
    <vehicle id="AF_D_203" type="standard_car" route="AF_D" depart="871.0" departLane="random" departSpeed="30" />
    <vehicle id="F_D_203" type="standard_car" route="F_D" depart="871.0" departLane="random" departSpeed="30" />
    <vehicle id="G_AF_204" type="standard_car" route="G_AF" depart="872.0" departLane="random" departSpeed="30" />
    <vehicle id="G_AF_205" type="standard_car" route="G_AF" depart="874.0" departLane="random" departSpeed="30" />
    <vehicle id="G_AF_206" type="standard_car" route="G_AF" depart="875.0" departLane="random" departSpeed="30" />
    <vehicle id="G_AF_207" type="standard_car" route="G_AF" depart="875.0" departLane="random" departSpeed="30" />
    <vehicle id="G_AF_208" type="standard_car" route="G_AF" depart="875.0" departLane="random" departSpeed="30" />
    <vehicle id="AF_G_209" type="standard_car" route="AF_G" depart="884.0" departLane="random" departSpeed="30" />
    <vehicle id="G_AF_210" type="standard_car" route="G_AF" depart="886.0" departLane="random" departSpeed="30" />
    <vehicle id="AF_G_211" type="standard_car" route="AF_G" depart="887.0" departLane="random" departSpeed="30" />
    <vehicle id="AF_G_212" type="standard_car" route="AF_G" depart="890.0" departLane="random" departSpeed="30" />
    <vehicle id="G_AF_213" type="standard_car" route="G_AF" depart="891.0" departLane="random" departSpeed="30" />
    <vehicle id="AF_G_214" type="standard_car" route="AF_G" depart="893.0" departLane="random" departSpeed="30" />